/*--------------------------------*- C++ -*----------------------------------*\
| =========                 |                                                 |
| \\      /  F ield         | OpenFOAM: The Open Source CFD Toolbox           |
|  \\    /   O peration     | Version:  v2006                                 |
|   \\  /    A nd           | Website:  www.openfoam.com                      |
|    \\/     M anipulation  |                                                 |
\*---------------------------------------------------------------------------*/
FoamFile
{
    version     2.0;
    format      ascii;
    class       volScalarField;
    location    "0";
    object      T;
}
// * * * * * * * * * * * * * * * * * * * * * * * * * * * * * * * * * * * * * //

dimensions      [0 0 0 1 0 0 0];


internalField   uniform 1;

boundaryField
{
    Outlet
    {
        type            zeroGradient;
    }
    Inlet
    {
        type            zeroGradient;
    }
    Top
    {
        type            symmetry;
    }
    Bottom
    {
        type            symmetry;
    }
    Wall
    {
        type            zeroGradient;
    }
    Side
    {
        type            empty;
    }
}

// ************************************************************************* //
